Uncertainty/data/case-de/case_de_49.py
from numpy import array
def case_de_49():
	ppc = {"version": '2'}
	ppc["baseMVA"] = 100.0
	ppc["bus"] = array([
		[75,     2,   79.62,    15.92,    0,      0,      5,   1.0,      0,        380.0,    0,   1.1,      0.9,      0.6, 10   ],
		[502,    2,   176.13,   35.23,    0,      0,      5,   1.0,      0,        220.0,    0,   1.1,      0.9,      0.6, 10   ],
		[44,     2,   108.55,   21.71,    0,      0,      5,   1.0,      0,        220.0,    0,   1.1,      0.9,      0.6, 10   ],
		[492,    2,   59.92,    11.98,    0,      0,      5,   1.0,      0,        220.0,    0,   1.1,      0.9,      0.6, 10   ],
		[180,    2,   34.76,    6.95,     0,      0,      5,   1.0,      0,        220.0,    0,   1.1,      0.9,      0.6, 10   ],
		[46,     1,   0,        0,        0,      0,      5,   1.0002,   0,        380.0,    0,   1.1,      0.9,      0.6, 10   ],
		[21,     2,   697.78,   139.56,   0,      0,      5,   1.0,      0,        380.0,    0,   1.1,      0.9,      0.6, 10   ],
		[33,     2,   143.65,   28.73,    0,      0,      5,   1.0,      0,        380.0,    0,   1.1,      0.9,      0.6, 10   ],
		[559,    2,   53.16,    10.63,    0,      0,      5,   1.0,      0,        220.0,    0,   1.1,      0.9,      0.6, 10   ],
		[18,     1,   0,        0,        0,      0,      5,   1.0026,   0,        380.0,    0,   1.1,      0.9,      0.6, 10   ],
		[73,     2,   63.88,    12.78,    0,      0,      5,   1.0,      0,        380.0,    0,   1.1,      0.9,      0.6, 10   ],
		[503,    2,   53.94,    10.79,    0,      0,      5,   1.0,      0,        220.0,    0,   1.1,      0.9,      0.6, 10   ],
		[511,    2,   78.98,    15.8,     0,      0,      5,   1.0,      0,        220.0,    0,   1.1,      0.9,      0.6, 10   ],
		[72,     2,   199.55,   39.91,    0,      0,      5,   1.0,      0,        380.0,    0,   1.1,      0.9,      0.6, 10   ],
		[288,    2,   46.63,    9.33,     0,      0,      5,   1.0,      0,        380.0,    0,   1.1,      0.9,      0.6, 10   ],
		[339,    2,   116.47,   23.29,    0,      0,      5,   1.0,      0,        220.0,    0,   1.1,      0.9,      0.6, 10   ],
		[321,    2,   150.19,   30.04,    0,      0,      5,   1.0,      0,        220.0,    0,   1.1,      0.9,      0.6, 10   ],
		[8,      2,   115.38,   23.08,    0,      0,      5,   1.0,      0,        380.0,    0,   1.1,      0.9,      0.6, 10   ],
		[292,    2,   95.15,    19.03,    0,      0,      5,   1.0,      0,        380.0,    0,   1.1,      0.9,      0.6, 10   ],
		[343,    2,   84.72,    16.94,    0,      0,      5,   1.0,      0,        220.0,    0,   1.1,      0.9,      0.6, 10   ],
		[12,     1,   0,        0,        0,      0,      5,   1.0006,   0,        380.0,    0,   1.1,      0.9,      0.6, 10   ],
		[340,    2,   98.47,    19.69,    0,      0,      5,   1.0,      0,        220.0,    0,   1.1,      0.9,      0.6, 10   ],
		[177,    2,   20.27,    4.05,     0,      0,      5,   1.0,      0,        220.0,    0,   1.1,      0.9,      0.6, 10   ],
		[497,    2,   735.96,   147.19,   0,      0,      5,   1.0,      0,        220.0,    0,   1.1,      0.9,      0.6, 10   ],
		[102,    2,   106.76,   21.35,    0,      0,      5,   1.0,      0,        380.0,    0,   1.1,      0.9,      0.6, 10   ],
		[311,    2,   146.75,   29.35,    0,      0,      5,   1.0,      0,        380.0,    0,   1.1,      0.9,      0.6, 10   ],
		[429,    2,   251.19,   50.24,    0,      0,      5,   1.0,      0,        220.0,    0,   1.1,      0.9,      0.6, 10   ],
		[32,     1,   0,        0,        0,      0,      5,   0.9989,   0,        380.0,    0,   1.1,      0.9,      0.6, 10   ],
		[22,     1,   0,        0,        0,      0,      5,   1.0009,   0,        380.0,    0,   1.1,      0.9,      0.6, 10   ],
		[101,    2,   55.16,    11.03,    0,      0,      5,   1.0,      0,        380.0,    0,   1.1,      0.9,      0.6, 10   ],
		[71,     2,   121.84,   24.37,    0,      0,      5,   1.0,      0,        380.0,    0,   1.1,      0.9,      0.6, 10   ],
		[558,    2,   99.32,    19.86,    0,      0,      5,   1.0,      0,        220.0,    0,   1.1,      0.9,      0.6, 10   ],
		[217,    2,   30.05,    6.01,     0,      0,      5,   1.0,      0,        380.0,    0,   1.1,      0.9,      0.6, 10   ],
		[322,    2,   19.12,    3.82,     0,      0,      5,   1.0,      0,        380.0,    0,   1.1,      0.9,      0.6, 10   ],
		[278,    2,   111.11,   22.22,    0,      0,      5,   1.0,      0,        380.0,    0,   1.1,      0.9,      0.6, 10   ],
		[498,    2,   34.52,    6.9,      0,      0,      5,   1.0,      0,        220.0,    0,   1.1,      0.9,      0.6, 10   ],
		[47,     2,   250.54,   50.11,    0,      0,      5,   1.0,      0,        380.0,    0,   1.1,      0.9,      0.6, 10   ],
		[346,    2,   230.58,   46.12,    0,      0,      5,   1.0,      0,        380.0,    0,   1.1,      0.9,      0.6, 10   ],
		[74,     1,   0,        0,        0,      0,      5,   1.0014,   0,        380.0,    0,   1.1,      0.9,      0.6, 10   ],
		[557,    2,   168.44,   33.69,    0,      0,      5,   1.0,      0,        220.0,    0,   1.1,      0.9,      0.6, 10   ],
		[42,     1,   0,        0,        0,      0,      5,   1.0014,   0,        380.0,    0,   1.1,      0.9,      0.6, 10   ],
		[39,     3,   49.28,    9.86,     0,      0,      5,   1.0,      0,        380.0,    0,   1.1,      0.9,      0.6, 10   ],
		[45,     2,   57.62,    11.52,    0,      0,      5,   1.0,      0,        220.0,    0,   1.1,      0.9,      0.6, 10   ],
		[493,    2,   77.23,    15.45,    0,      0,      5,   1.0,      0,        220.0,    0,   1.1,      0.9,      0.6, 10   ],
		[98,     2,   77.9,     15.58,    0,      0,      5,   1.0,      0,        380.0,    0,   1.1,      0.9,      0.6, 10   ],
		[435,    2,   111.28,   22.26,    0,      0,      5,   1.0,      0,        380.0,    0,   1.1,      0.9,      0.6, 10   ],
		[338,    2,   188.31,   37.66,    0,      0,      5,   1.0,      0,        220.0,    0,   1.1,      0.9,      0.6, 10   ],
		[79,     2,   76.86,    15.37,    0,      0,      5,   1.0,      0,        380.0,    0,   1.1,      0.9,      0.6, 10   ],
		[78,     1,   0,        0,        0,      0,      5,   0.9991,   0,        380.0,    0,   1.1,      0.9,      0.6, 10   ],
		[512,    2,   52.17,    10.43,    0,      0,      5,   1.0,      0,        220.0,    0,   1.1,      0.9,      0.6, 10   ],
		[276,    2,   142.32,   28.46,    0,      0,      5,   1.0,      0,        220.0,    0,   1.1,      0.9,      0.6, 10   ],
		[569,    2,   137.83,   27.57,    0,      0,      5,   1.0,      0,        220.0,    0,   1.1,      0.9,      0.6, 10   ],
		[37,     1,   0,        0,        0,      0,      5,   1.0028,   0,        380.0,    0,   1.1,      0.9,      0.6, 10   ],
		[179,    2,   39.55,    7.91,     0,      0,      5,   1.0,      0,        220.0,    0,   1.1,      0.9,      0.6, 10   ],
		[325,    2,   114.55,   22.91,    0,      0,      5,   1.0,      0,        380.0,    0,   1.1,      0.9,      0.6, 10   ],
		[20,     1,   0,        0,        0,      0,      5,   0.9996,   0,        380.0,    0,   1.1,      0.9,      0.6, 10   ],
		[496,    2,   5.89,     1.18,     0,      0,      5,   1.0,      0,        220.0,    0,   1.1,      0.9,      0.6, 10   ],
		[279,    1,   0,        0,        0,      0,      5,   0.9996,   0,        380.0,    0,   1.1,      0.9,      0.6, 10   ],
		[436,    2,   59.41,    11.88,    0,      0,      5,   1.0,      0,        380.0,    0,   1.1,      0.9,      0.6, 10   ],
		[345,    2,   232.26,   46.45,    0,      0,      5,   1.0,      0,        380.0,    0,   1.1,      0.9,      0.6, 10   ],
		[505,    2,   250.54,   50.11,    0,      0,      5,   1.0,      0,        220.0,    0,   1.1,      0.9,      0.6, 10   ],
		[290,    1,   0,        0,        0,      0,      5,   1.0042,   0,        380.0,    0,   1.1,      0.9,      0.6, 10   ],
		[363,    2,   235.04,   47.01,    0,      0,      5,   1.0,      0,        380.0,    0,   1.1,      0.9,      0.6, 10   ],
		[11,     2,   68.37,    13.67,    0,      0,      5,   1.0,      0,        220.0,    0,   1.1,      0.9,      0.6, 10   ],
		[277,    1,   0,        0,        0,      0,      5,   0.9997,   0,        380.0,    0,   1.1,      0.9,      0.6, 10   ],
		[441,    2,   43.8,     8.76,     0,      0,      5,   1.0,      0,        220.0,    0,   1.1,      0.9,      0.6, 10   ],
		[280,    1,   0,        0,        0,      0,      5,   0.9996,   0,        380.0,    0,   1.1,      0.9,      0.6, 10   ],
		[504,    2,   35.32,    7.06,     0,      0,      5,   1.0,      0,        220.0,    0,   1.1,      0.9,      0.6, 10   ],
		[181,    2,   26.24,    5.25,     0,      0,      5,   1.0,      0,        220.0,    0,   1.1,      0.9,      0.6, 10   ],
		[291,    2,   48.26,    9.65,     0,      0,      5,   1.0,      0,        220.0,    0,   1.1,      0.9,      0.6, 10   ],
		[344,    2,   212.41,   42.48,    0,      0,      5,   1.0,      0,        380.0,    0,   1.1,      0.9,      0.6, 10   ],
		[40,     2,   51.48,    10.3,     0,      0,      5,   1.0,      0,        380.0,    0,   1.1,      0.9,      0.6, 10   ],
		[80,     2,   81.64,    16.33,    0,      0,      5,   1.0,      0,        380.0,    0,   1.1,      0.9,      0.6, 10   ],
		[183,    2,   355.79,   71.16,    0,      0,      5,   1.0,      0,        380.0,    0,   1.1,      0.9,      0.6, 10   ],
		[440,    2,   57.14,    11.43,    0,      0,      5,   1.0,      0,        220.0,    0,   1.1,      0.9,      0.6, 10   ],
		[43,     2,   84.85,    16.97,    0,      0,      5,   1.0,      0,        220.0,    0,   1.1,      0.9,      0.6, 10   ],
		[10,     1,   0,        0,        0,      0,      5,   0.9996,   0,        380.0,    0,   1.1,      0.9,      0.6, 10   ],
		[81,     2,   92.16,    18.43,    0,      0,      5,   1.0,      0,        380.0,    0,   1.1,      0.9,      0.6, 10   ],
		[560,    2,   83.04,    16.61,    0,      0,      5,   1.0,      0,        220.0,    0,   1.1,      0.9,      0.6, 10   ],
		[341,    2,   89.02,    17.8,     0,      0,      5,   1.0,      0,        380.0,    0,   1.1,      0.9,      0.6, 10   ],
		[17,     2,   65.68,    13.14,    0,      0,      5,   1.0,      0,        380.0,    0,   1.1,      0.9,      0.6, 10   ],
		[41,     2,   55.33,    11.07,    0,      0,      5,   1.0,      0,        380.0,    0,   1.1,      0.9,      0.6, 10   ],
		[192,    2,   41.69,    8.34,     0,      0,      0,   1.0,      0,        220.0,    0,   1.1,      0.9,      0.6, 10   ],
		[342,    2,   154.42,   30.88,    0,      0,      0,   1.0,      0,        220.0,    0,   1.1,      0.9,      0.6, 10   ],
		[218,    2,   91.56,    18.31,    0,      0,      0,   1.0,      0,        220.0,    0,   1.1,      0.9,      0.6, 10   ],
		[65,     2,   4.07,     0.81,     0,      0,      0,   1.0,      0,        380.0,    0,   1.1,      0.9,      0.6, 10   ],
		[289,    2,   73.34,    14.67,    0,      0,      0,   1.0,      0,        380.0,    0,   1.1,      0.9,      0.6, 10   ],
		[324,    2,   351.66,   70.33,    0,      0,      0,   1.0,      0,        380.0,    0,   1.1,      0.9,      0.6, 10   ],
		[48,     2,   172.21,   34.44,    0,      0,      0,   1.0,      0,        380.0,    0,   1.1,      0.9,      0.6, 10   ],
		[332,    1,   0,        0,        0,      0,      0,   0.9991,   0,        380.0,    0,   1.1,      0.9,      0.6, 10   ],
		[422,    2,   57.34,    11.47,    0,      0,      0,   1.0,      0,        380.0,    0,   1.1,      0.9,      0.6, 10   ],
		[23,     2,   91.36,    18.27,    0,      0,      0,   1.0,      0,        220.0,    0,   1.1,      0.9,      0.6, 10   ],
		[570,    2,   215.18,   43.04,    0,      0,      0,   1.0,      0,        220.0,    0,   1.1,      0.9,      0.6, 10   ],
		[38,     2,   150.51,   30.1,     0,      0,      0,   1.0,      0,        380.0,    0,   1.1,      0.9,      0.6, 10   ],
		[31,     2,   114.57,   22.91,    0,      0,      0,   1.0,      0,        380.0,    0,   1.1,      0.9,      0.6, 10   ],
		[49,     2,   43.56,    8.71,     0,      0,      0,   1.0,      0,        380.0,    0,   1.1,      0.9,      0.6, 10   ],
		[182,    2,   1.19,     0.24,     0,      0,      0,   1.0,      0,        220.0,    0,   1.1,      0.9,      0.6, 10   ],
		[9,      2,   78.03,    15.61,    0,      0,      0,   1.0,      0,        380.0,    0,   1.1,      0.9,      0.6, 10   ],
		[323,    2,   1.99,     0.4,      0,      0,      0,   1.0,      0,        380.0,    0,   1.1,      0.9,      0.6, 10   ],
		[400,    2,   41.71,    8.34,     0,      0,      0,   1.0,      0,        220.0,    0,   1.1,      0.9,      0.6, 10   ],
		[30,     1,   0,        0,        0,      0,      0,   0.9996,   0,        380.0,    0,   1.1,      0.9,      0.6, 10   ],
		[25,     2,   43.7,     8.74,     0,      0,      0,   1.0,      0,        380.0,    0,   1.1,      0.9,      0.6, 10   ]
	])
	ppc["gen"] = array([
		[102,    0.0,      0,        33.95,    -8.49,    1.0,      100,    1,   67.9,     0.0,      0, 0, 0, 0, 0, 0, 0, 0, 0, 0, 0, 0,   0.95,   101.85,   13.58,    20.37,    20.37,    27.16     ],
		[493,    0.0,      0,        75.0,     -18.75,   1.0,      100,    1,   150.0,    0.0,      0, 0, 0, 0, 0, 0, 0, 0, 0, 0, 0, 0,   0.95,   225.0,    30.0,     45.0,     45.0,     60.0      ],
		[493,    30.0,     0,        15.0,     -3.75,    1.0,      100,    1,   30.0,     0.0,      0, 0, 0, 0, 0, 0, 0, 0, 0, 0, 0, 0,   0.95,   45.0,     6.0,      9.0,      9.0,      12.0      ],
		[177,    0.0,      0,        16.35,    -4.09,    1.0,      100,    1,   32.7,     0.0,      0, 0, 0, 0, 0, 0, 0, 0, 0, 0, 0, 0,   0.95,   49.05,    6.54,     9.81,     9.81,     13.08     ],
		[180,    0.0,      0,        12.7,     -3.18,    1.0,      100,    1,   25.4,     0.0,      0, 0, 0, 0, 0, 0, 0, 0, 0, 0, 0, 0,   0.95,   38.1,     5.08,     7.62,     7.62,     10.16     ],
		[180,    0.0,      0,        166.75,   -41.69,   1.0,      100,    1,   333.5,    0.0,      0, 0, 0, 0, 0, 0, 0, 0, 0, 0, 0, 0,   0.95,   500.25,   66.7,     100.05,   100.05,   133.4     ],
		[180,    28.9,     0,        14.45,    -3.61,    1.0,      100,    1,   28.9,     0.0,      0, 0, 0, 0, 0, 0, 0, 0, 0, 0, 0, 0,   0.95,   43.35,    5.78,     8.67,     8.67,     11.56     ],
		[183,    0.0,      0,        11.25,    -2.81,    1.0,      100,    1,   22.5,     0.0,      0, 0, 0, 0, 0, 0, 0, 0, 0, 0, 0, 0,   0.95,   33.75,    4.5,      6.75,     6.75,     9.0       ],
		[183,    766.0,    0,        383.0,    -95.75,   1.0,      100,    1,   766.0,    0.0,      0, 0, 0, 0, 0, 0, 0, 0, 0, 0, 0, 0,   0.95,   1149.0,   153.2,    229.8,    229.8,    306.4     ],
		[183,    0.0,      0,        19.0,     -4.75,    1.0,      100,    1,   38.0,     0.0,      0, 0, 0, 0, 0, 0, 0, 0, 0, 0, 0, 0,   0.95,   57.0,     7.6,      11.4,     11.4,     15.2      ],
		[183,    24.0,     0,        12.0,     -3.0,     1.0,      100,    1,   24.0,     0.0,      0, 0, 0, 0, 0, 0, 0, 0, 0, 0, 0, 0,   0.95,   36.0,     4.8,      7.2,      7.2,      9.6       ],
		[496,    0.0,      0,        26.4,     -6.6,     1.0,      100,    1,   52.8,     0.0,      0, 0, 0, 0, 0, 0, 0, 0, 0, 0, 0, 0,   0.95,   79.2,     10.56,    15.84,    15.84,    21.12     ],
		[21,     0.0,      0,        63.5,     -15.88,   1.0,      100,    1,   127.0,    0.0,      0, 0, 0, 0, 0, 0, 0, 0, 0, 0, 0, 0,   0.95,   190.5,    25.4,     38.1,     38.1,     50.8      ],
		[21,     194.0,    0,        97.0,     -24.25,   1.0,      100,    1,   194.0,    0.0,      0, 0, 0, 0, 0, 0, 0, 0, 0, 0, 0, 0,   0.95,   291.0,    38.8,     58.2,     58.2,     77.6      ],
		[21,     16.4,     0,        8.2,      -2.05,    1.0,      100,    1,   16.4,     0.0,      0, 0, 0, 0, 0, 0, 0, 0, 0, 0, 0, 0,   0.95,   24.6,     3.28,     4.92,     4.92,     6.56      ],
		[217,    0.0,      0,        54.0,     -13.5,    1.0,      100,    1,   108.0,    0.0,      0, 0, 0, 0, 0, 0, 0, 0, 0, 0, 0, 0,   0.95,   162.0,    21.6,     32.4,     32.4,     43.2      ],
		[217,    508.0,    0,        254.0,    -63.5,    1.0,      100,    1,   508.0,    0.0,      0, 0, 0, 0, 0, 0, 0, 0, 0, 0, 0, 0,   0.95,   762.0,    101.6,    152.4,    152.4,    203.2     ],
		[217,    17.0,     0,        8.5,      -2.12,    1.0,      100,    1,   17.0,     0.0,      0, 0, 0, 0, 0, 0, 0, 0, 0, 0, 0, 0,   0.95,   25.5,     3.4,      5.1,      5.1,      6.8       ],
		[498,    0.0,      0,        149.25,   -37.31,   1.0,      100,    1,   298.5,    0.0,      0, 0, 0, 0, 0, 0, 0, 0, 0, 0, 0, 0,   0.95,   447.75,   59.7,     89.55,    89.55,    119.4     ],
		[557,    90.8,     0,        45.4,     -11.35,   1.0,      100,    1,   90.8,     0.0,      0, 0, 0, 0, 0, 0, 0, 0, 0, 0, 0, 0,   0.95,   136.2,    18.16,    27.24,    27.24,    36.32     ],
		[558,    0.0,      0,        37.0,     -9.25,    1.0,      100,    1,   74.0,     0.0,      0, 0, 0, 0, 0, 0, 0, 0, 0, 0, 0, 0,   0.95,   111.0,    14.8,     22.2,     22.2,     29.6      ],
		[559,    0.0,      0,        8.5,      -2.12,    1.0,      100,    1,   17.0,     0.0,      0, 0, 0, 0, 0, 0, 0, 0, 0, 0, 0, 0,   0.95,   25.5,     3.4,      5.1,      5.1,      6.8       ],
		[288,    15.7,     0,        7.85,     -1.96,    1.0,      100,    1,   15.7,     0.0,      0, 0, 0, 0, 0, 0, 0, 0, 0, 0, 0, 0,   0.95,   23.55,    3.14,     4.71,     4.71,     6.28      ],
		[289,    1105.0,   0,        552.5,    -138.12,  1.0,      100,    1,   1105.0,   0.0,      0, 0, 0, 0, 0, 0, 0, 0, 0, 0, 0, 0,   0.95,   1657.5,   221.0,    331.5,    331.5,    442.0     ],
		[560,    20.3,     0,        10.15,    -2.54,    1.0,      100,    1,   20.3,     0.0,      0, 0, 0, 0, 0, 0, 0, 0, 0, 0, 0, 0,   0.95,   30.45,    4.06,     6.09,     6.09,     8.12      ],
		[560,    0.0,      0,        108.0,    -27.0,    1.0,      100,    1,   216.0,    0.0,      0, 0, 0, 0, 0, 0, 0, 0, 0, 0, 0, 0,   0.95,   324.0,    43.2,     64.8,     64.8,     86.4      ],
		[560,    59.0,     0,        29.5,     -7.38,    1.0,      100,    1,   59.0,     0.0,      0, 0, 0, 0, 0, 0, 0, 0, 0, 0, 0, 0,   0.95,   88.5,     11.8,     17.7,     17.7,     23.6      ],
		[292,    0.0,      0,        6.75,     -1.69,    1.0,      100,    1,   13.5,     0.0,      0, 0, 0, 0, 0, 0, 0, 0, 0, 0, 0, 0,   0.95,   20.25,    2.7,      4.05,     4.05,     5.4       ],
		[292,    11.2,     0,        5.6,      -1.4,     1.0,      100,    1,   11.2,     0.0,      0, 0, 0, 0, 0, 0, 0, 0, 0, 0, 0, 0,   0.95,   16.8,     2.24,     3.36,     3.36,     4.48      ],
		[31,     0.0,      0,        97.7,     -24.42,   1.0,      100,    1,   195.4,    0.0,      0, 0, 0, 0, 0, 0, 0, 0, 0, 0, 0, 0,   0.95,   293.1,    39.08,    58.62,    58.62,    78.16     ],
		[311,    875.0,    0,        437.5,    -109.38,  1.0,      100,    1,   875.0,    0.0,      0, 0, 0, 0, 0, 0, 0, 0, 0, 0, 0, 0,   0.95,   1312.5,   175.0,    262.5,    262.5,    350.0     ],
		[321,    0.0,      0,        6.45,     -1.61,    1.0,      100,    1,   12.9,     0.0,      0, 0, 0, 0, 0, 0, 0, 0, 0, 0, 0, 0,   0.95,   19.35,    2.58,     3.87,     3.87,     5.16      ],
		[324,    0.0,      0,        159.9,    -39.98,   1.0,      100,    1,   319.8,    0.0,      0, 0, 0, 0, 0, 0, 0, 0, 0, 0, 0, 0,   0.95,   479.7,    63.96,    95.94,    95.94,    127.92    ],
		[325,    0.0,      0,        13.45,    -3.36,    1.0,      100,    1,   26.9,     0.0,      0, 0, 0, 0, 0, 0, 0, 0, 0, 0, 0, 0,   0.95,   40.35,    5.38,     8.07,     8.07,     10.76     ],
		[502,    0.0,      0,        54.55,    -13.64,   1.0,      100,    1,   109.1,    0.0,      0, 0, 0, 0, 0, 0, 0, 0, 0, 0, 0, 0,   0.95,   163.65,   21.82,    32.73,    32.73,    43.64     ],
		[33,     0.0,      0,        15.9,     -3.98,    1.0,      100,    1,   31.8,     0.0,      0, 0, 0, 0, 0, 0, 0, 0, 0, 0, 0, 0,   0.95,   47.7,     6.36,     9.54,     9.54,     12.72     ],
		[570,    0.0,      0,        26.4,     -6.6,     1.0,      100,    1,   52.8,     0.0,      0, 0, 0, 0, 0, 0, 0, 0, 0, 0, 0, 0,   0.95,   79.2,     10.56,    15.84,    15.84,    21.12     ],
		[570,    89.0,     0,        44.5,     -11.12,   1.0,      100,    1,   89.0,     0.0,      0, 0, 0, 0, 0, 0, 0, 0, 0, 0, 0, 0,   0.95,   133.5,    17.8,     26.7,     26.7,     35.6      ],
		[338,    0.0,      0,        149.8,    -37.45,   1.0,      100,    1,   299.6,    0.0,      0, 0, 0, 0, 0, 0, 0, 0, 0, 0, 0, 0,   0.95,   449.4,    59.92,    89.88,    89.88,    119.84    ],
		[338,    82.5,     0,        41.25,    -10.31,   1.0,      100,    1,   82.5,     0.0,      0, 0, 0, 0, 0, 0, 0, 0, 0, 0, 0, 0,   0.95,   123.75,   16.5,     24.75,    24.75,    33.0      ],
		[339,    134.0,    0,        67.0,     -16.75,   1.0,      100,    1,   134.0,    0.0,      0, 0, 0, 0, 0, 0, 0, 0, 0, 0, 0, 0,   0.95,   201.0,    26.8,     40.2,     40.2,     53.6      ],
		[339,    0.0,      0,        79.5,     -19.88,   1.0,      100,    1,   159.0,    0.0,      0, 0, 0, 0, 0, 0, 0, 0, 0, 0, 0, 0,   0.95,   238.5,    31.8,     47.7,     47.7,     63.6      ],
		[339,    0.0,      0,        55.5,     -13.88,   1.0,      100,    1,   111.0,    0.0,      0, 0, 0, 0, 0, 0, 0, 0, 0, 0, 0, 0,   0.95,   166.5,    22.2,     33.3,     33.3,     44.4      ],
		[339,    0.0,      0,        21.35,    -5.34,    1.0,      100,    1,   42.7,     0.0,      0, 0, 0, 0, 0, 0, 0, 0, 0, 0, 0, 0,   0.95,   64.05,    8.54,     12.81,    12.81,    17.08     ],
		[339,    58.0,     0,        29.0,     -7.25,    1.0,      100,    1,   58.0,     0.0,      0, 0, 0, 0, 0, 0, 0, 0, 0, 0, 0, 0,   0.95,   87.0,     11.6,     17.4,     17.4,     23.2      ],
		[340,    0.0,      0,        9.75,     -2.44,    1.0,      100,    1,   19.5,     0.0,      0, 0, 0, 0, 0, 0, 0, 0, 0, 0, 0, 0,   0.95,   29.25,    3.9,      5.85,     5.85,     7.8       ],
		[342,    0.0,      0,        34.98,    -8.74,    1.0,      100,    1,   69.95,    0.0,      0, 0, 0, 0, 0, 0, 0, 0, 0, 0, 0, 0,   0.95,   104.93,   13.99,    20.98,    20.98,    27.98     ],
		[345,    0.0,      0,        105.5,    -26.38,   1.0,      100,    1,   211.0,    0.0,      0, 0, 0, 0, 0, 0, 0, 0, 0, 0, 0, 0,   0.95,   316.5,    42.2,     63.3,     63.3,     84.4      ],
		[345,    89.0,     0,        44.5,     -11.12,   1.0,      100,    1,   89.0,     0.0,      0, 0, 0, 0, 0, 0, 0, 0, 0, 0, 0, 0,   0.95,   133.5,    17.8,     26.7,     26.7,     35.6      ],
		[345,    0.0,      0,        163.5,    -40.88,   1.0,      100,    1,   327.0,    0.0,      0, 0, 0, 0, 0, 0, 0, 0, 0, 0, 0, 0,   0.95,   490.5,    65.4,     98.1,     98.1,     130.8     ],
		[346,    0.0,      0,        229.45,   -57.36,   1.0,      100,    1,   458.9,    0.0,      0, 0, 0, 0, 0, 0, 0, 0, 0, 0, 0, 0,   0.95,   688.35,   91.78,    137.67,   137.67,   183.56    ],
		[363,    0.0,      0,        40.9,     -10.22,   1.0,      100,    1,   81.8,     0.0,      0, 0, 0, 0, 0, 0, 0, 0, 0, 0, 0, 0,   0.95,   122.7,    16.36,    24.54,    24.54,    32.72     ],
		[363,    688.0,    0,        344.0,    -86.0,    1.0,      100,    1,   688.0,    0.0,      0, 0, 0, 0, 0, 0, 0, 0, 0, 0, 0, 0,   0.95,   1032.0,   137.6,    206.4,    206.4,    275.2     ],
		[363,    36.0,     0,        18.0,     -4.5,     1.0,      100,    1,   36.0,     0.0,      0, 0, 0, 0, 0, 0, 0, 0, 0, 0, 0, 0,   0.95,   54.0,     7.2,      10.8,     10.8,     14.4      ],
		[503,    0.0,      0,        26.0,     -6.5,     1.0,      100,    1,   52.0,     0.0,      0, 0, 0, 0, 0, 0, 0, 0, 0, 0, 0, 0,   0.95,   78.0,     10.4,     15.6,     15.6,     20.8      ],
		[503,    1360.0,   0,        680.0,    -170.0,   1.0,      100,    1,   1360.0,   0.0,      0, 0, 0, 0, 0, 0, 0, 0, 0, 0, 0, 0,   0.95,   2040.0,   272.0,    408.0,    408.0,    544.0     ],
		[503,    58.4,     0,        29.2,     -7.3,     1.0,      100,    1,   58.4,     0.0,      0, 0, 0, 0, 0, 0, 0, 0, 0, 0, 0, 0,   0.95,   87.6,     11.68,    17.52,    17.52,    23.36     ],
		[39,     0.0,      0,        1149.65,  -287.41,  1.0,      100,    1,   2299.3,   0.0,      0, 0, 0, 0, 0, 0, 0, 0, 0, 0, 0, 0,   0.95,   3448.95,  459.86,   689.79,   689.79,   919.72    ],
		[40,     48.0,     0,        24.0,     -6.0,     1.0,      100,    1,   48.0,     0.0,      0, 0, 0, 0, 0, 0, 0, 0, 0, 0, 0, 0,   0.95,   72.0,     9.6,      14.4,     14.4,     19.2      ],
		[400,    0.0,      0,        44.0,     -11.0,    1.0,      100,    1,   88.0,     0.0,      0, 0, 0, 0, 0, 0, 0, 0, 0, 0, 0, 0,   0.95,   132.0,    17.6,     26.4,     26.4,     35.2      ],
		[400,    60.0,     0,        30.0,     -7.5,     1.0,      100,    1,   60.0,     0.0,      0, 0, 0, 0, 0, 0, 0, 0, 0, 0, 0, 0,   0.95,   90.0,     12.0,     18.0,     18.0,     24.0      ],
		[400,    158.0,    0,        79.0,     -19.75,   1.0,      100,    1,   158.0,    0.0,      0, 0, 0, 0, 0, 0, 0, 0, 0, 0, 0, 0,   0.95,   237.0,    31.6,     47.4,     47.4,     63.2      ],
		[422,    0.0,      0,        37.0,     -9.25,    1.0,      100,    1,   74.0,     0.0,      0, 0, 0, 0, 0, 0, 0, 0, 0, 0, 0, 0,   0.95,   111.0,    14.8,     22.2,     22.2,     29.6      ],
		[43,     0.0,      0,        98.0,     -24.5,    1.0,      100,    1,   196.0,    0.0,      0, 0, 0, 0, 0, 0, 0, 0, 0, 0, 0, 0,   0.95,   294.0,    39.2,     58.8,     58.8,     78.4      ],
		[43,     17.0,     0,        8.5,      -2.12,    1.0,      100,    1,   17.0,     0.0,      0, 0, 0, 0, 0, 0, 0, 0, 0, 0, 0, 0,   0.95,   25.5,     3.4,      5.1,      5.1,      6.8       ],
		[429,    164.0,    0,        82.0,     -20.5,    1.0,      100,    1,   164.0,    0.0,      0, 0, 0, 0, 0, 0, 0, 0, 0, 0, 0, 0,   0.95,   246.0,    32.8,     49.2,     49.2,     65.6      ],
		[44,     26.0,     0,        13.0,     -3.25,    1.0,      100,    1,   26.0,     0.0,      0, 0, 0, 0, 0, 0, 0, 0, 0, 0, 0, 0,   0.95,   39.0,     5.2,      7.8,      7.8,      10.4      ],
		[435,    0.0,      0,        91.0,     -22.75,   1.0,      100,    1,   182.0,    0.0,      0, 0, 0, 0, 0, 0, 0, 0, 0, 0, 0, 0,   0.95,   273.0,    36.4,     54.6,     54.6,     72.8      ],
		[435,    0.0,      0,        30.75,    -7.69,    1.0,      100,    1,   61.5,     0.0,      0, 0, 0, 0, 0, 0, 0, 0, 0, 0, 0, 0,   0.95,   92.25,    12.3,     18.45,    18.45,    24.6      ],
		[436,    0.0,      0,        13.25,    -3.31,    1.0,      100,    1,   26.5,     0.0,      0, 0, 0, 0, 0, 0, 0, 0, 0, 0, 0, 0,   0.95,   39.75,    5.3,      7.95,     7.95,     10.6      ],
		[440,    0.0,      0,        7.35,     -1.84,    1.0,      100,    1,   14.7,     0.0,      0, 0, 0, 0, 0, 0, 0, 0, 0, 0, 0, 0,   0.95,   22.05,    2.94,     4.41,     4.41,     5.88      ],
		[441,    0.0,      0,        37.5,     -9.38,    1.0,      100,    1,   75.0,     0.0,      0, 0, 0, 0, 0, 0, 0, 0, 0, 0, 0, 0,   0.95,   112.5,    15.0,     22.5,     22.5,     30.0      ],
		[45,     0.0,      0,        148.0,    -37.0,    1.0,      100,    1,   296.0,    0.0,      0, 0, 0, 0, 0, 0, 0, 0, 0, 0, 0, 0,   0.95,   444.0,    59.2,     88.8,     88.8,     118.4     ],
		[45,     23.1,     0,        11.55,    -2.89,    1.0,      100,    1,   23.1,     0.0,      0, 0, 0, 0, 0, 0, 0, 0, 0, 0, 0, 0,   0.95,   34.65,    4.62,     6.93,     6.93,     9.24      ],
		[47,     0.0,      0,        222.0,    -55.5,    1.0,      100,    1,   444.0,    0.0,      0, 0, 0, 0, 0, 0, 0, 0, 0, 0, 0, 0,   0.95,   666.0,    88.8,     133.2,    133.2,    177.6     ],
		[47,     31.7,     0,        15.85,    -3.96,    1.0,      100,    1,   31.7,     0.0,      0, 0, 0, 0, 0, 0, 0, 0, 0, 0, 0, 0,   0.95,   47.55,    6.34,     9.51,     9.51,     12.68     ],
		[49,     352.0,    0,        176.0,    -44.0,    1.0,      100,    1,   352.0,    0.0,      0, 0, 0, 0, 0, 0, 0, 0, 0, 0, 0, 0,   0.95,   528.0,    70.4,     105.6,    105.6,    140.8     ],
		[49,     66.0,     0,        33.0,     -8.25,    1.0,      100,    1,   66.0,     0.0,      0, 0, 0, 0, 0, 0, 0, 0, 0, 0, 0, 0,   0.95,   99.0,     13.2,     19.8,     19.8,     26.4      ],
		[49,     37.5,     0,        18.75,    -4.69,    1.0,      100,    1,   37.5,     0.0,      0, 0, 0, 0, 0, 0, 0, 0, 0, 0, 0, 0,   0.95,   56.25,    7.5,      11.25,    11.25,    15.0      ],
		[65,     164.5,    0,        82.25,    -20.56,   1.0,      100,    1,   164.5,    0.0,      0, 0, 0, 0, 0, 0, 0, 0, 0, 0, 0, 0,   0.95,   246.75,   32.9,     49.35,    49.35,    65.8      ],
		[71,     49.0,     0,        24.5,     -6.12,    1.0,      100,    1,   49.0,     0.0,      0, 0, 0, 0, 0, 0, 0, 0, 0, 0, 0, 0,   0.95,   73.5,     9.8,      14.7,     14.7,     19.6      ],
		[71,     0.0,      0,        80.55,    -20.14,   1.0,      100,    1,   161.1,    0.0,      0, 0, 0, 0, 0, 0, 0, 0, 0, 0, 0, 0,   0.95,   241.65,   32.22,    48.33,    48.33,    64.44     ],
		[71,     9.9,      0,        4.95,     -1.24,    1.0,      100,    1,   9.9,      0.0,      0, 0, 0, 0, 0, 0, 0, 0, 0, 0, 0, 0,   0.95,   14.85,    1.98,     2.97,     2.97,     3.96      ],
		[72,     900.0,    0,        450.0,    -112.5,   1.0,      100,    1,   900.0,    0.0,      0, 0, 0, 0, 0, 0, 0, 0, 0, 0, 0, 0,   0.95,   1350.0,   180.0,    270.0,    270.0,    360.0     ],
		[72,     0.0,      0,        75.5,     -18.88,   1.0,      100,    1,   151.0,    0.0,      0, 0, 0, 0, 0, 0, 0, 0, 0, 0, 0, 0,   0.95,   226.5,    30.2,     45.3,     45.3,     60.4      ],
		[72,     0.0,      0,        60.0,     -15.0,    1.0,      100,    1,   120.0,    0.0,      0, 0, 0, 0, 0, 0, 0, 0, 0, 0, 0, 0,   0.95,   180.0,    24.0,     36.0,     36.0,     48.0      ],
		[511,    0.0,      0,        61.0,     -15.25,   1.0,      100,    1,   122.0,    0.0,      0, 0, 0, 0, 0, 0, 0, 0, 0, 0, 0, 0,   0.95,   183.0,    24.4,     36.6,     36.6,     48.8      ],
		[511,    23.3,     0,        11.65,    -2.91,    1.0,      100,    1,   23.3,     0.0,      0, 0, 0, 0, 0, 0, 0, 0, 0, 0, 0, 0,   0.95,   34.95,    4.66,     6.99,     6.99,     9.32      ],
		[75,     49.0,     0,        24.5,     -6.12,    1.0,      100,    1,   49.0,     0.0,      0, 0, 0, 0, 0, 0, 0, 0, 0, 0, 0, 0,   0.95,   73.5,     9.8,      14.7,     14.7,     19.6      ],
		[79,     750.0,    0,        375.0,    -93.75,   1.0,      100,    1,   750.0,    0.0,      0, 0, 0, 0, 0, 0, 0, 0, 0, 0, 0, 0,   0.95,   1125.0,   150.0,    225.0,    225.0,    300.0     ],
		[79,     18.7,     0,        9.35,     -2.34,    1.0,      100,    1,   18.7,     0.0,      0, 0, 0, 0, 0, 0, 0, 0, 0, 0, 0, 0,   0.95,   28.05,    3.74,     5.61,     5.61,     7.48      ],
		[81,     2525.2,   0,        1417.5,   -354.38,  1.0,      100,    1,   2835.0,   0.0,      0, 0, 0, 0, 0, 0, 0, 0, 0, 0, 0, 0,   0.95,   4252.5,   567.0,    850.5,    850.5,    1134.0    ],
		[81,     0.0,      0,        62.25,    -15.56,   1.0,      100,    1,   124.5,    0.0,      0, 0, 0, 0, 0, 0, 0, 0, 0, 0, 0, 0,   0.95,   186.75,   24.9,     37.35,    37.35,    49.8      ],
		[218,    10.91,    0,        5.46,     -1.36,    1.0,      100,    1,   10.91,    0.0,      0, 0, 0, 0, 0, 0, 0, 0, 0, 0, 0, 1,   0.95,   16.37,    2.18,     3.27,     3.27,     4.37      ],
		[498,    590.13,   0,        295.07,   -73.77,   1.0,      100,    1,   590.13,   0.0,      0, 0, 0, 0, 0, 0, 0, 0, 0, 0, 0, 1,   0.95,   885.2,    118.03,   177.04,   177.04,   236.05    ],
		[8,      7.3,      0,        3.65,     -0.91,    1.0,      100,    1,   7.3,      0.0,      0, 0, 0, 0, 0, 0, 0, 0, 0, 0, 0, 1,   0.95,   10.95,    1.46,     2.19,     2.19,     2.92      ],
		[9,      7.35,     0,        3.67,     -0.92,    1.0,      100,    1,   7.35,     0.0,      0, 0, 0, 0, 0, 0, 0, 0, 0, 0, 0, 1,   0.95,   11.02,    1.47,     2.2,      2.2,      2.94      ],
		[11,     7.91,     0,        3.95,     -0.99,    1.0,      100,    1,   7.91,     0.0,      0, 0, 0, 0, 0, 0, 0, 0, 0, 0, 0, 1,   0.95,   11.86,    1.58,     2.37,     2.37,     3.16      ],
		[17,     2.12,     0,        1.06,     -0.27,    1.0,      100,    1,   2.12,     0.0,      0, 0, 0, 0, 0, 0, 0, 0, 0, 0, 0, 1,   0.95,   3.18,     0.42,     0.64,     0.64,     0.85      ],
		[21,     2.15,     0,        1.08,     -0.27,    1.0,      100,    1,   2.15,     0.0,      0, 0, 0, 0, 0, 0, 0, 0, 0, 0, 0, 1,   0.95,   3.23,     0.43,     0.65,     0.65,     0.86      ],
		[23,     2.96,     0,        1.48,     -0.37,    1.0,      100,    1,   2.96,     0.0,      0, 0, 0, 0, 0, 0, 0, 0, 0, 0, 0, 1,   0.95,   4.45,     0.59,     0.89,     0.89,     1.19      ],
		[25,     6.8,      0,        3.4,      -0.85,    1.0,      100,    1,   6.8,      0.0,      0, 0, 0, 0, 0, 0, 0, 0, 0, 0, 0, 1,   0.95,   10.2,     1.36,     2.04,     2.04,     2.72      ],
		[31,     2.48,     0,        1.24,     -0.31,    1.0,      100,    1,   2.48,     0.0,      0, 0, 0, 0, 0, 0, 0, 0, 0, 0, 0, 1,   0.95,   3.72,     0.5,      0.74,     0.74,     0.99      ],
		[33,     11.46,    0,        5.73,     -1.43,    1.0,      100,    1,   11.46,    0.0,      0, 0, 0, 0, 0, 0, 0, 0, 0, 0, 0, 1,   0.95,   17.19,    2.29,     3.44,     3.44,     4.59      ],
		[38,     0.24,     0,        0.12,     -0.03,    1.0,      100,    1,   0.24,     0.0,      0, 0, 0, 0, 0, 0, 0, 0, 0, 0, 0, 1,   0.95,   0.36,     0.05,     0.07,     0.07,     0.1       ],
		[39,     105.32,   0,        52.66,    -13.16,   1.0,      100,    1,   105.32,   0.0,      0, 0, 0, 0, 0, 0, 0, 0, 0, 0, 0, 1,   0.95,   157.98,   21.06,    31.6,     31.6,     42.13     ],
		[40,     51.61,    0,        25.81,    -6.45,    1.0,      100,    1,   51.61,    0.0,      0, 0, 0, 0, 0, 0, 0, 0, 0, 0, 0, 1,   0.95,   77.42,    10.32,    15.48,    15.48,    20.65     ],
		[41,     102.59,   0,        51.3,     -12.82,   1.0,      100,    1,   102.59,   0.0,      0, 0, 0, 0, 0, 0, 0, 0, 0, 0, 0, 1,   0.95,   153.89,   20.52,    30.78,    30.78,    41.04     ],
		[43,     54.21,    0,        27.11,    -6.78,    1.0,      100,    1,   54.21,    0.0,      0, 0, 0, 0, 0, 0, 0, 0, 0, 0, 0, 1,   0.95,   81.32,    10.84,    16.26,    16.26,    21.68     ],
		[44,     0.46,     0,        0.23,     -0.06,    1.0,      100,    1,   0.46,     0.0,      0, 0, 0, 0, 0, 0, 0, 0, 0, 0, 0, 1,   0.95,   0.7,      0.09,     0.14,     0.14,     0.19      ],
		[45,     12.28,    0,        6.14,     -1.53,    1.0,      100,    1,   12.28,    0.0,      0, 0, 0, 0, 0, 0, 0, 0, 0, 0, 0, 1,   0.95,   18.42,    2.46,     3.68,     3.68,     4.91      ],
		[47,     0.13,     0,        0.07,     -0.02,    1.0,      100,    1,   0.13,     0.0,      0, 0, 0, 0, 0, 0, 0, 0, 0, 0, 0, 1,   0.95,   0.2,      0.03,     0.04,     0.04,     0.05      ],
		[48,     0.32,     0,        0.16,     -0.04,    1.0,      100,    1,   0.32,     0.0,      0, 0, 0, 0, 0, 0, 0, 0, 0, 0, 0, 1,   0.95,   0.48,     0.06,     0.1,      0.1,      0.13      ],
		[49,     31.61,    0,        15.8,     -3.95,    1.0,      100,    1,   31.61,    0.0,      0, 0, 0, 0, 0, 0, 0, 0, 0, 0, 0, 1,   0.95,   47.41,    6.32,     9.48,     9.48,     12.64     ],
		[65,     4.23,     0,        2.12,     -0.53,    1.0,      100,    1,   4.23,     0.0,      0, 0, 0, 0, 0, 0, 0, 0, 0, 0, 0, 1,   0.95,   6.35,     0.85,     1.27,     1.27,     1.69      ],
		[71,     30.69,    0,        15.34,    -3.84,    1.0,      100,    1,   30.69,    0.0,      0, 0, 0, 0, 0, 0, 0, 0, 0, 0, 0, 1,   0.95,   46.03,    6.14,     9.21,     9.21,     12.27     ],
		[72,     31.89,    0,        15.95,    -3.99,    1.0,      100,    1,   31.89,    0.0,      0, 0, 0, 0, 0, 0, 0, 0, 0, 0, 0, 1,   0.95,   47.84,    6.38,     9.57,     9.57,     12.76     ],
		[73,     60.59,    0,        30.29,    -7.57,    1.0,      100,    1,   60.59,    0.0,      0, 0, 0, 0, 0, 0, 0, 0, 0, 0, 0, 1,   0.95,   90.88,    12.12,    18.18,    18.18,    24.24     ],
		[75,     18.55,    0,        9.27,     -2.32,    1.0,      100,    1,   18.55,    0.0,      0, 0, 0, 0, 0, 0, 0, 0, 0, 0, 0, 1,   0.95,   27.82,    3.71,     5.56,     5.56,     7.42      ],
		[79,     16.1,     0,        8.05,     -2.01,    1.0,      100,    1,   16.1,     0.0,      0, 0, 0, 0, 0, 0, 0, 0, 0, 0, 0, 1,   0.95,   24.14,    3.22,     4.83,     4.83,     6.44      ],
		[80,     4.88,     0,        2.44,     -0.61,    1.0,      100,    1,   4.88,     0.0,      0, 0, 0, 0, 0, 0, 0, 0, 0, 0, 0, 1,   0.95,   7.33,     0.98,     1.47,     1.47,     1.95      ],
		[81,     21.07,    0,        10.54,    -2.63,    1.0,      100,    1,   21.07,    0.0,      0, 0, 0, 0, 0, 0, 0, 0, 0, 0, 0, 1,   0.95,   31.61,    4.21,     6.32,     6.32,     8.43      ],
		[98,     6.65,     0,        3.32,     -0.83,    1.0,      100,    1,   6.65,     0.0,      0, 0, 0, 0, 0, 0, 0, 0, 0, 0, 0, 1,   0.95,   9.97,     1.33,     1.99,     1.99,     2.66      ],
		[101,    20.42,    0,        10.21,    -2.55,    1.0,      100,    1,   20.42,    0.0,      0, 0, 0, 0, 0, 0, 0, 0, 0, 0, 0, 1,   0.95,   30.62,    4.08,     6.12,     6.12,     8.17      ],
		[102,    17.65,    0,        8.82,     -2.21,    1.0,      100,    1,   17.65,    0.0,      0, 0, 0, 0, 0, 0, 0, 0, 0, 0, 0, 1,   0.95,   26.47,    3.53,     5.29,     5.29,     7.06      ],
		[177,    35.73,    0,        17.86,    -4.47,    1.0,      100,    1,   35.73,    0.0,      0, 0, 0, 0, 0, 0, 0, 0, 0, 0, 0, 1,   0.95,   53.59,    7.15,     10.72,    10.72,    14.29     ],
		[179,    21.99,    0,        11.0,     -2.75,    1.0,      100,    1,   21.99,    0.0,      0, 0, 0, 0, 0, 0, 0, 0, 0, 0, 0, 1,   0.95,   32.99,    4.4,      6.6,      6.6,      8.8       ],
		[180,    7.62,     0,        3.81,     -0.95,    1.0,      100,    1,   7.62,     0.0,      0, 0, 0, 0, 0, 0, 0, 0, 0, 0, 0, 1,   0.95,   11.43,    1.52,     2.29,     2.29,     3.05      ],
		[181,    31.04,    0,        15.52,    -3.88,    1.0,      100,    1,   31.04,    0.0,      0, 0, 0, 0, 0, 0, 0, 0, 0, 0, 0, 1,   0.95,   46.56,    6.21,     9.31,     9.31,     12.41     ],
		[182,    2.44,     0,        1.22,     -0.31,    1.0,      100,    1,   2.44,     0.0,      0, 0, 0, 0, 0, 0, 0, 0, 0, 0, 0, 1,   0.95,   3.66,     0.49,     0.73,     0.73,     0.98      ],
		[183,    8.87,     0,        4.43,     -1.11,    1.0,      100,    1,   8.87,     0.0,      0, 0, 0, 0, 0, 0, 0, 0, 0, 0, 0, 1,   0.95,   13.3,     1.77,     2.66,     2.66,     3.55      ],
		[192,    18.36,    0,        9.18,     -2.3,     1.0,      100,    1,   18.36,    0.0,      0, 0, 0, 0, 0, 0, 0, 0, 0, 0, 0, 1,   0.95,   27.55,    3.67,     5.51,     5.51,     7.35      ],
		[217,    11.2,     0,        5.6,      -1.4,     1.0,      100,    1,   11.2,     0.0,      0, 0, 0, 0, 0, 0, 0, 0, 0, 0, 0, 1,   0.95,   16.81,    2.24,     3.36,     3.36,     4.48      ],
		[218,    7.67,     0,        3.83,     -0.96,    1.0,      100,    1,   7.67,     0.0,      0, 0, 0, 0, 0, 0, 0, 0, 0, 0, 0, 1,   0.95,   11.5,     1.53,     2.3,      2.3,      3.07      ],
		[276,    40.1,     0,        20.05,    -5.01,    1.0,      100,    1,   40.1,     0.0,      0, 0, 0, 0, 0, 0, 0, 0, 0, 0, 0, 1,   0.95,   60.14,    8.02,     12.03,    12.03,    16.04     ],
		[278,    59.1,     0,        29.55,    -7.39,    1.0,      100,    1,   59.1,     0.0,      0, 0, 0, 0, 0, 0, 0, 0, 0, 0, 0, 1,   0.95,   88.66,    11.82,    17.73,    17.73,    23.64     ],
		[288,    8.62,     0,        4.31,     -1.08,    1.0,      100,    1,   8.62,     0.0,      0, 0, 0, 0, 0, 0, 0, 0, 0, 0, 0, 1,   0.95,   12.93,    1.72,     2.59,     2.59,     3.45      ],
		[289,    2.21,     0,        1.1,      -0.28,    1.0,      100,    1,   2.21,     0.0,      0, 0, 0, 0, 0, 0, 0, 0, 0, 0, 0, 1,   0.95,   3.31,     0.44,     0.66,     0.66,     0.88      ],
		[291,    1.4,      0,        0.7,      -0.18,    1.0,      100,    1,   1.4,      0.0,      0, 0, 0, 0, 0, 0, 0, 0, 0, 0, 0, 1,   0.95,   2.1,      0.28,     0.42,     0.42,     0.56      ],
		[292,    0.53,     0,        0.27,     -0.07,    1.0,      100,    1,   0.53,     0.0,      0, 0, 0, 0, 0, 0, 0, 0, 0, 0, 0, 1,   0.95,   0.8,      0.11,     0.16,     0.16,     0.21      ],
		[311,    5.09,     0,        2.55,     -0.64,    1.0,      100,    1,   5.09,     0.0,      0, 0, 0, 0, 0, 0, 0, 0, 0, 0, 0, 1,   0.95,   7.64,     1.02,     1.53,     1.53,     2.04      ],
		[321,    8.49,     0,        4.24,     -1.06,    1.0,      100,    1,   8.49,     0.0,      0, 0, 0, 0, 0, 0, 0, 0, 0, 0, 0, 1,   0.95,   12.73,    1.7,      2.55,     2.55,     3.39      ],
		[322,    2.8,      0,        1.4,      -0.35,    1.0,      100,    1,   2.8,      0.0,      0, 0, 0, 0, 0, 0, 0, 0, 0, 0, 0, 1,   0.95,   4.2,      0.56,     0.84,     0.84,     1.12      ],
		[323,    2.2,      0,        1.1,      -0.27,    1.0,      100,    1,   2.2,      0.0,      0, 0, 0, 0, 0, 0, 0, 0, 0, 0, 0, 1,   0.95,   3.3,      0.44,     0.66,     0.66,     0.88      ],
		[324,    10.35,    0,        5.18,     -1.29,    1.0,      100,    1,   10.35,    0.0,      0, 0, 0, 0, 0, 0, 0, 0, 0, 0, 0, 1,   0.95,   15.53,    2.07,     3.11,     3.11,     4.14      ],
		[325,    40.16,    0,        20.08,    -5.02,    1.0,      100,    1,   40.16,    0.0,      0, 0, 0, 0, 0, 0, 0, 0, 0, 0, 0, 1,   0.95,   60.24,    8.03,     12.05,    12.05,    16.06     ],
		[338,    8.75,     0,        4.38,     -1.09,    1.0,      100,    1,   8.75,     0.0,      0, 0, 0, 0, 0, 0, 0, 0, 0, 0, 0, 1,   0.95,   13.13,    1.75,     2.63,     2.63,     3.5       ],
		[339,    16.93,    0,        8.46,     -2.12,    1.0,      100,    1,   16.93,    0.0,      0, 0, 0, 0, 0, 0, 0, 0, 0, 0, 0, 1,   0.95,   25.39,    3.39,     5.08,     5.08,     6.77      ],
		[340,    7.02,     0,        3.51,     -0.88,    1.0,      100,    1,   7.02,     0.0,      0, 0, 0, 0, 0, 0, 0, 0, 0, 0, 0, 1,   0.95,   10.53,    1.4,      2.11,     2.11,     2.81      ],
		[341,    0.13,     0,        0.07,     -0.02,    1.0,      100,    1,   0.13,     0.0,      0, 0, 0, 0, 0, 0, 0, 0, 0, 0, 0, 1,   0.95,   0.2,      0.03,     0.04,     0.04,     0.05      ],
		[342,    24.58,    0,        12.29,    -3.07,    1.0,      100,    1,   24.58,    0.0,      0, 0, 0, 0, 0, 0, 0, 0, 0, 0, 0, 1,   0.95,   36.88,    4.92,     7.38,     7.38,     9.83      ],
		[343,    4.91,     0,        2.45,     -0.61,    1.0,      100,    1,   4.91,     0.0,      0, 0, 0, 0, 0, 0, 0, 0, 0, 0, 0, 1,   0.95,   7.36,     0.98,     1.47,     1.47,     1.96      ],
		[344,    0.2,      0,        0.1,      -0.02,    1.0,      100,    1,   0.2,      0.0,      0, 0, 0, 0, 0, 0, 0, 0, 0, 0, 0, 1,   0.95,   0.3,      0.04,     0.06,     0.06,     0.08      ],
		[345,    0.26,     0,        0.13,     -0.03,    1.0,      100,    1,   0.26,     0.0,      0, 0, 0, 0, 0, 0, 0, 0, 0, 0, 0, 1,   0.95,   0.39,     0.05,     0.08,     0.08,     0.1       ],
		[346,    0.27,     0,        0.14,     -0.03,    1.0,      100,    1,   0.27,     0.0,      0, 0, 0, 0, 0, 0, 0, 0, 0, 0, 0, 1,   0.95,   0.41,     0.05,     0.08,     0.08,     0.11      ],
		[363,    0.28,     0,        0.14,     -0.04,    1.0,      100,    1,   0.28,     0.0,      0, 0, 0, 0, 0, 0, 0, 0, 0, 0, 0, 1,   0.95,   0.42,     0.06,     0.08,     0.08,     0.11      ],
		[400,    11.56,    0,        5.78,     -1.44,    1.0,      100,    1,   11.56,    0.0,      0, 0, 0, 0, 0, 0, 0, 0, 0, 0, 0, 1,   0.95,   17.33,    2.31,     3.47,     3.47,     4.62      ],
		[422,    8.29,     0,        4.15,     -1.04,    1.0,      100,    1,   8.29,     0.0,      0, 0, 0, 0, 0, 0, 0, 0, 0, 0, 0, 1,   0.95,   12.44,    1.66,     2.49,     2.49,     3.32      ],
		[429,    0.06,     0,        0.03,     -0.01,    1.0,      100,    1,   0.06,     0.0,      0, 0, 0, 0, 0, 0, 0, 0, 0, 0, 0, 1,   0.95,   0.09,     0.01,     0.02,     0.02,     0.02      ],
		[435,    15.61,    0,        7.81,     -1.95,    1.0,      100,    1,   15.61,    0.0,      0, 0, 0, 0, 0, 0, 0, 0, 0, 0, 0, 1,   0.95,   23.42,    3.12,     4.68,     4.68,     6.25      ],
		[436,    1.78,     0,        0.89,     -0.22,    1.0,      100,    1,   1.78,     0.0,      0, 0, 0, 0, 0, 0, 0, 0, 0, 0, 0, 1,   0.95,   2.66,     0.36,     0.53,     0.53,     0.71      ],
		[440,    42.78,    0,        21.39,    -5.35,    1.0,      100,    1,   42.78,    0.0,      0, 0, 0, 0, 0, 0, 0, 0, 0, 0, 0, 1,   0.95,   64.17,    8.56,     12.83,    12.83,    17.11     ],
		[441,    27.18,    0,        13.59,    -3.4,     1.0,      100,    1,   27.18,    0.0,      0, 0, 0, 0, 0, 0, 0, 0, 0, 0, 0, 1,   0.95,   40.78,    5.44,     8.16,     8.16,     10.87     ],
		[492,    49.51,    0,        24.75,    -6.19,    1.0,      100,    1,   49.51,    0.0,      0, 0, 0, 0, 0, 0, 0, 0, 0, 0, 0, 1,   0.95,   74.26,    9.9,      14.85,    14.85,    19.8      ],
		[493,    8.63,     0,        4.31,     -1.08,    1.0,      100,    1,   8.63,     0.0,      0, 0, 0, 0, 0, 0, 0, 0, 0, 0, 0, 1,   0.95,   12.94,    1.73,     2.59,     2.59,     3.45      ],
		[496,    53.02,    0,        26.51,    -6.63,    1.0,      100,    1,   53.02,    0.0,      0, 0, 0, 0, 0, 0, 0, 0, 0, 0, 0, 1,   0.95,   79.53,    10.6,     15.91,    15.91,    21.21     ],
		[497,    0.74,     0,        0.37,     -0.09,    1.0,      100,    1,   0.74,     0.0,      0, 0, 0, 0, 0, 0, 0, 0, 0, 0, 0, 1,   0.95,   1.11,     0.15,     0.22,     0.22,     0.3       ],
		[498,    158.86,   0,        79.43,    -19.86,   1.0,      100,    1,   158.86,   0.0,      0, 0, 0, 0, 0, 0, 0, 0, 0, 0, 0, 1,   0.95,   238.3,    31.77,    47.66,    47.66,    63.55     ],
		[502,    7.67,     0,        3.84,     -0.96,    1.0,      100,    1,   7.67,     0.0,      0, 0, 0, 0, 0, 0, 0, 0, 0, 0, 0, 1,   0.95,   11.51,    1.53,     2.3,      2.3,      3.07      ],
		[503,    63.19,    0,        31.59,    -7.9,     1.0,      100,    1,   63.19,    0.0,      0, 0, 0, 0, 0, 0, 0, 0, 0, 0, 0, 1,   0.95,   94.78,    12.64,    18.96,    18.96,    25.27     ],
		[504,    7.55,     0,        3.78,     -0.94,    1.0,      100,    1,   7.55,     0.0,      0, 0, 0, 0, 0, 0, 0, 0, 0, 0, 0, 1,   0.95,   11.33,    1.51,     2.27,     2.27,     3.02      ],
		[505,    0.04,     0,        0.02,     -0.0,     1.0,      100,    1,   0.04,     0.0,      0, 0, 0, 0, 0, 0, 0, 0, 0, 0, 0, 1,   0.95,   0.06,     0.01,     0.01,     0.01,     0.02      ],
		[511,    76.9,     0,        38.45,    -9.61,    1.0,      100,    1,   76.9,     0.0,      0, 0, 0, 0, 0, 0, 0, 0, 0, 0, 0, 1,   0.95,   115.34,   15.38,    23.07,    23.07,    30.76     ],
		[512,    5.64,     0,        2.82,     -0.7,     1.0,      100,    1,   5.64,     0.0,      0, 0, 0, 0, 0, 0, 0, 0, 0, 0, 0, 1,   0.95,   8.46,     1.13,     1.69,     1.69,     2.26      ],
		[557,    19.58,    0,        9.79,     -2.45,    1.0,      100,    1,   19.58,    0.0,      0, 0, 0, 0, 0, 0, 0, 0, 0, 0, 0, 1,   0.95,   29.36,    3.92,     5.87,     5.87,     7.83      ],
		[558,    25.69,    0,        12.85,    -3.21,    1.0,      100,    1,   25.69,    0.0,      0, 0, 0, 0, 0, 0, 0, 0, 0, 0, 0, 1,   0.95,   38.54,    5.14,     7.71,     7.71,     10.28     ],
		[559,    14.39,    0,        7.2,      -1.8,     1.0,      100,    1,   14.39,    0.0,      0, 0, 0, 0, 0, 0, 0, 0, 0, 0, 0, 1,   0.95,   21.59,    2.88,     4.32,     4.32,     5.76      ],
		[560,    30.15,    0,        15.07,    -3.77,    1.0,      100,    1,   30.15,    0.0,      0, 0, 0, 0, 0, 0, 0, 0, 0, 0, 0, 1,   0.95,   45.22,    6.03,     9.04,     9.04,     12.06     ],
		[569,    3.16,     0,        1.58,     -0.4,     1.0,      100,    1,   3.16,     0.0,      0, 0, 0, 0, 0, 0, 0, 0, 0, 0, 0, 1,   0.95,   4.74,     0.63,     0.95,     0.95,     1.26      ],
		[570,    15.72,    0,        7.86,     -1.97,    1.0,      100,    1,   15.72,    0.0,      0, 0, 0, 0, 0, 0, 0, 0, 0, 0, 0, 1,   0.95,   23.58,    3.14,     4.72,     4.72,     6.29      ],
		[8,      0.0,      0,        0.0,      -0.0,     1.0,      100,    1,   0.0,      0.0,      0, 0, 0, 0, 0, 0, 0, 0, 0, 0, 0, 2,   0.95,   0.0,      0.0,      0.0,      0.0,      0.0       ],
		[9,      0.0,      0,        0.0,      -0.0,     1.0,      100,    1,   0.0,      0.0,      0, 0, 0, 0, 0, 0, 0, 0, 0, 0, 0, 2,   0.95,   0.0,      0.0,      0.0,      0.0,      0.0       ],
		[11,     0.0,      0,        0.0,      -0.0,     1.0,      100,    1,   0.0,      0.0,      0, 0, 0, 0, 0, 0, 0, 0, 0, 0, 0, 2,   0.95,   0.0,      0.0,      0.0,      0.0,      0.0       ],
		[17,     0.0,      0,        0.0,      -0.0,     1.0,      100,    1,   0.0,      0.0,      0, 0, 0, 0, 0, 0, 0, 0, 0, 0, 0, 2,   0.95,   0.0,      0.0,      0.0,      0.0,      0.0       ],
		[21,     0.0,      0,        0.0,      -0.0,     1.0,      100,    1,   0.0,      0.0,      0, 0, 0, 0, 0, 0, 0, 0, 0, 0, 0, 2,   0.95,   0.0,      0.0,      0.0,      0.0,      0.0       ],
		[23,     0.0,      0,        0.0,      -0.0,     1.0,      100,    1,   0.0,      0.0,      0, 0, 0, 0, 0, 0, 0, 0, 0, 0, 0, 2,   0.95,   0.0,      0.0,      0.0,      0.0,      0.0       ],
		[25,     0.0,      0,        0.0,      -0.0,     1.0,      100,    1,   0.0,      0.0,      0, 0, 0, 0, 0, 0, 0, 0, 0, 0, 0, 2,   0.95,   0.0,      0.0,      0.0,      0.0,      0.0       ],
		[31,     0.0,      0,        0.0,      -0.0,     1.0,      100,    1,   0.0,      0.0,      0, 0, 0, 0, 0, 0, 0, 0, 0, 0, 0, 2,   0.95,   0.0,      0.0,      0.0,      0.0,      0.0       ],
		[33,     0.0,      0,        0.0,      -0.0,     1.0,      100,    1,   0.0,      0.0,      0, 0, 0, 0, 0, 0, 0, 0, 0, 0, 0, 2,   0.95,   0.0,      0.0,      0.0,      0.0,      0.0       ],
		[38,     0.0,      0,        0.0,      -0.0,     1.0,      100,    1,   0.0,      0.0,      0, 0, 0, 0, 0, 0, 0, 0, 0, 0, 0, 2,   0.95,   0.0,      0.0,      0.0,      0.0,      0.0       ],
		[39,     0.0,      0,        0.0,      -0.0,     1.0,      100,    1,   0.0,      0.0,      0, 0, 0, 0, 0, 0, 0, 0, 0, 0, 0, 2,   0.95,   0.0,      0.0,      0.0,      0.0,      0.0       ],
		[40,     0.0,      0,        0.0,      -0.0,     1.0,      100,    1,   0.0,      0.0,      0, 0, 0, 0, 0, 0, 0, 0, 0, 0, 0, 2,   0.95,   0.0,      0.0,      0.0,      0.0,      0.0       ],
		[41,     0.0,      0,        0.0,      -0.0,     1.0,      100,    1,   0.0,      0.0,      0, 0, 0, 0, 0, 0, 0, 0, 0, 0, 0, 2,   0.95,   0.0,      0.0,      0.0,      0.0,      0.0       ],
		[43,     0.0,      0,        0.0,      -0.0,     1.0,      100,    1,   0.0,      0.0,      0, 0, 0, 0, 0, 0, 0, 0, 0, 0, 0, 2,   0.95,   0.0,      0.0,      0.0,      0.0,      0.0       ],
		[44,     0.0,      0,        0.0,      -0.0,     1.0,      100,    1,   0.0,      0.0,      0, 0, 0, 0, 0, 0, 0, 0, 0, 0, 0, 2,   0.95,   0.0,      0.0,      0.0,      0.0,      0.0       ],
		[45,     0.0,      0,        0.0,      -0.0,     1.0,      100,    1,   0.0,      0.0,      0, 0, 0, 0, 0, 0, 0, 0, 0, 0, 0, 2,   0.95,   0.0,      0.0,      0.0,      0.0,      0.0       ],
		[47,     0.0,      0,        0.0,      -0.0,     1.0,      100,    1,   0.0,      0.0,      0, 0, 0, 0, 0, 0, 0, 0, 0, 0, 0, 2,   0.95,   0.0,      0.0,      0.0,      0.0,      0.0       ],
		[48,     0.0,      0,        0.0,      -0.0,     1.0,      100,    1,   0.0,      0.0,      0, 0, 0, 0, 0, 0, 0, 0, 0, 0, 0, 2,   0.95,   0.0,      0.0,      0.0,      0.0,      0.0       ],
		[49,     0.0,      0,        0.0,      -0.0,     1.0,      100,    1,   0.0,      0.0,      0, 0, 0, 0, 0, 0, 0, 0, 0, 0, 0, 2,   0.95,   0.0,      0.0,      0.0,      0.0,      0.0       ],
		[65,     0.0,      0,        0.0,      -0.0,     1.0,      100,    1,   0.0,      0.0,      0, 0, 0, 0, 0, 0, 0, 0, 0, 0, 0, 2,   0.95,   0.0,      0.0,      0.0,      0.0,      0.0       ],
...
	])
	ppc["branch"] = array([
		[8,      9,      0.00024379,    0.00243793,    0.35006327,    2395,   0, 0, 0,      0, 1, -30,    30,     0.1     ],
		[492,    11,     0.0045562,     0.01822479,    0.04820045,    346,    0, 0, 0,      0, 1, -30,    30,     0.1     ],
		[11,     493,    0.00757174,    0.03028694,    0.0801021,     346,    0, 0, 0,      0, 1, -30,    30,     0.1     ],
		[492,    493,    0.01130413,    0.04521653,    0.11958747,    346,    0, 0, 0,      0, 1, -30,    30,     0.1     ],
		[17,     18,     0.00462352,    0.04623523,    0.9335989,     898,    0, 0, 0,      0, 1, -30,    30,     0.1     ],
		[17,     12,     0.0005602,     0.00560203,    0.1131183,     898,    0, 0, 0,      0, 1, -30,    30,     0.1     ],
		[20,     21,     0.00108334,    0.01083345,    0.09722357,    598,    0, 0, 0,      0, 1, -30,    30,     0.1     ],
		[20,     22,     0.00099339,    0.00993386,    0.3566014,     1197,   0, 0, 0,      0, 1, -30,    30,     0.1     ],
		[497,    23,     0.0005476,     0.00219041,    0.00579315,    346,    0, 0, 0,      0, 1, -30,    30,     0.1     ],
		[25,     22,     0.00035578,    0.00355783,    0.03192931,    598,    0, 0, 0,      0, 1, -30,    30,     0.1     ],
		[8,      21,     0.00098947,    0.00989474,    0.0887992,     598,    0, 0, 0,      0, 1, -30,    30,     0.1     ],
		[31,     32,     0.00299776,    0.02997761,    0.60531903,    898,    0, 0, 0,      0, 1, -30,    30,     0.1     ],
		[32,     33,     0.00167622,    0.01676223,    0.33846928,    898,    0, 0, 0,      0, 1, -30,    30,     0.1     ],
		[37,     10,     0.00240464,    0.0240464,     0.48555384,    898,    0, 0, 0,      0, 1, -30,    30,     0.1     ],
		[10,     38,     0.00068488,    0.0068488,     0.13829351,    898,    0, 0, 0,      0, 1, -30,    30,     0.1     ],
		[37,     38,     0.00143783,    0.01437835,    1.16133176,    1796,   0, 0, 0,      0, 1, -30,    30,     0.1     ],
		[39,     40,     0.00452163,    0.0452163,     0.91302431,    898,    0, 0, 0,      0, 1, -30,    30,     0.1     ],
		[39,     41,     0.0017467,     0.01746699,    0.35269996,    898,    0, 0, 0,      0, 1, -30,    30,     0.1     ],
		[42,     41,     0.00311454,    0.03114543,    0.6289001,     898,    0, 0, 0,      0, 1, -30,    30,     0.1     ],
		[18,     42,     0.00343975,    0.03439751,    0.69456727,    898,    0, 0, 0,      0, 1, -30,    30,     0.1     ],
		[492,    43,     0.00910612,    0.03642446,    0.09633445,    346,    0, 0, 0,      0, 1, -30,    30,     0.1     ],
		[492,    43,     0.00909587,    0.03638347,    0.09622603,    346,    0, 0, 0,      0, 1, -30,    30,     0.1     ],
		[44,     45,     0.00640579,    0.02562314,    0.0677674,     346,    0, 0, 0,      0, 1, -30,    30,     0.1     ],
		[44,     505,    0.00151537,    0.00606149,    0.01603126,    346,    0, 0, 0,      0, 1, -30,    30,     0.1     ],
		[46,     12,     0.00029449,    0.00294494,    0.1057163,     1197,   0, 0, 0,      0, 1, -30,    30,     0.1     ],
		[46,     12,     0.00029482,    0.00294823,    0.10583438,    1197,   0, 0, 0,      0, 1, -30,    30,     0.1     ],
		[47,     48,     0.00053442,    0.00534418,    0.01199019,    299,    0, 0, 0,      0, 1, -30,    30,     0.1     ],
		[31,     33,     0.0013476,     0.01347599,    0.27211226,    898,    0, 0, 0,      0, 1, -30,    30,     0.1     ],
		[71,     72,     0.00088786,    0.00887864,    0.31872128,    1197,   0, 0, 0,      0, 1, -30,    30,     0.1     ],
		[73,     74,     0.00125295,    0.01252955,    0.25300129,    898,    0, 0, 0,      0, 1, -30,    30,     0.1     ],
		[37,     75,     0.00274591,    0.02745914,    0.5544652,     898,    0, 0, 0,      0, 1, -30,    30,     0.1     ],
		[72,     75,     0.00066887,    0.00668871,    0.24010838,    1197,   0, 0, 0,      0, 1, -30,    30,     0.1     ],
		[37,     72,     0.00362221,    0.03622207,    0.73140949,    898,    0, 0, 0,      0, 1, -30,    30,     0.1     ],
		[73,     72,     0.00254751,    0.02547507,    0.51440208,    898,    0, 0, 0,      0, 1, -30,    30,     0.1     ],
		[18,     40,     0.00130277,    0.0130277,     0.26306019,    898,    0, 0, 0,      0, 1, -30,    30,     0.1     ],
		[492,    45,     0.00771758,    0.0308703,     0.18370115,    520,    0, 0, 0,      0, 1, -30,    30,     0.1     ],
		[10,     74,     0.00301674,    0.03016736,    0.60915055,    898,    0, 0, 0,      0, 1, -30,    30,     0.1     ],
		[45,     511,    0.02050843,    0.08203372,    0.05424015,    173,    0, 0, 0,      0, 1, -30,    30,     0.1     ],
		[78,     32,     0.00134588,    0.0134588,     0.48313778,    1197,   0, 0, 0,      0, 1, -30,    30,     0.1     ],
		[79,     80,     0.00076233,    0.00762327,    0.06841417,    598,    0, 0, 0,      0, 1, -30,    30,     0.1     ],
		[79,     80,     0.00076174,    0.00761738,    0.06836134,    598,    0, 0, 0,      0, 1, -30,    30,     0.1     ],
		[81,     79,     0.00215305,    0.02153047,    0.19322279,    598,    0, 0, 0,      0, 1, -30,    30,     0.1     ],
		[81,     79,     0.00215357,    0.02153566,    0.1932694,     598,    0, 0, 0,      0, 1, -30,    30,     0.1     ],
		[42,     98,     0.00061861,    0.00618611,    0.22206638,    1197,   0, 0, 0,      0, 1, -30,    30,     0.1     ],
		[42,     98,     0.00061835,    0.00618352,    0.22197315,    1197,   0, 0, 0,      0, 1, -30,    30,     0.1     ],
		[42,     101,    0.00081653,    0.00816534,    0.29311568,    1197,   0, 0, 0,      0, 1, -30,    30,     0.1     ],
		[102,    42,     0.0012403,     0.01240305,    0.44523901,    1197,   0, 0, 0,      0, 1, -30,    30,     0.1     ],
		[37,     39,     0.00065102,    0.00651021,    0.23370076,    1197,   0, 0, 0,      0, 1, -30,    30,     0.1     ],
		[177,    496,    0.00932496,    0.03729983,    0.09864961,    346,    0, 0, 0,      0, 1, -30,    30,     0.1     ],
		[177,    496,    0.00931603,    0.03726413,    0.09855518,    346,    0, 0, 0,      0, 1, -30,    30,     0.1     ],
		[179,    493,    0.01426992,    0.05707967,    0.15096279,    346,    0, 0, 0,      0, 1, -30,    30,     0.1     ],
		[180,    181,    0.01025686,    0.04102744,    0.10850827,    346,    0, 0, 0,      0, 1, -30,    30,     0.1     ],
		[182,    180,    0.00433818,    0.01735273,    0.04589403,    346,    0, 0, 0,      0, 1, -30,    30,     0.1     ],
		[179,    181,    0.00489306,    0.01957223,    0.05176412,    346,    0, 0, 0,      0, 1, -30,    30,     0.1     ],
		[180,    493,    0.0166914,     0.06676562,    0.17657993,    346,    0, 0, 0,      0, 1, -30,    30,     0.1     ],
		[183,    30,     0.00049645,    0.00496451,    0.17821369,    1197,   0, 0, 0,      0, 1, -30,    30,     0.1     ],
		[183,    21,     0.00025687,    0.00256873,    0.36884485,    2395,   0, 0, 0,      0, 1, -30,    30,     0.1     ],
		[183,    21,     0.00051295,    0.0051295,     0.18413654,    1197,   0, 0, 0,      0, 1, -30,    30,     0.1     ],
		[183,    30,     0.00049609,    0.00496087,    0.17808317,    1197,   0, 0, 0,      0, 1, -30,    30,     0.1     ],
		[504,    192,    0.00015355,    0.00061421,    0.00162446,    346,    0, 0, 0,      0, 1, -30,    30,     0.1     ],
		[504,    192,    0.00015421,    0.00061686,    0.00163145,    346,    0, 0, 0,      0, 1, -30,    30,     0.1     ],
		[217,    98,     0.00012787,    0.00127874,    0.04590362,    1197,   0, 0, 0,      0, 1, -30,    30,     0.1     ],
		[504,    218,    0.00687025,    0.02748099,    0.07268099,    346,    0, 0, 0,      0, 1, -30,    30,     0.1     ],
		[177,    504,    0.01763702,    0.0705481,     0.18658373,    346,    0, 0, 0,      0, 1, -30,    30,     0.1     ],
		[37,     39,     0.00086777,    0.00867775,    0.1752243,     898,    0, 0, 0,      0, 1, -30,    30,     0.1     ],
		[20,     22,     0.00099413,    0.00994131,    0.35686864,    1197,   0, 0, 0,      0, 1, -30,    30,     0.1     ],
		[20,     21,     0.00108314,    0.01083137,    0.09720492,    598,    0, 0, 0,      0, 1, -30,    30,     0.1     ],
		[503,    276,    0.00335322,    0.01341289,    0.03547406,    346,    0, 0, 0,      0, 1, -30,    30,     0.1     ],
		[503,    276,    0.00335372,    0.01341488,    0.03547931,    346,    0, 0, 0,      0, 1, -30,    30,     0.1     ],
		[503,    504,    0.03215471,    0.12861884,    0.34016769,    346,    0, 0, 0,      0, 1, -30,    30,     0.1     ],
		[503,    504,    0.03216364,    0.12865455,    0.34026211,    346,    0, 0, 0,      0, 1, -30,    30,     0.1     ],
...